data original/sourcebus_22000.trafo_75620917_75620917/Lines.dss
New Line.line_75614035_3110243_3104670 Units=km Length=0.0585999984741211 bus1=3104670.1.3 bus2=3110243.1.3 switch=n enabled=y phases=2 Linecode=2P_Code11
New Line.line_75614036_3110265_3110210 Units=km Length=0.016700000762939454 bus1=3110210.1.3 bus2=3110265.1.3 switch=n enabled=y phases=2 Linecode=2P_Code11
New Line.line_75614037_3110210_3110211 Units=km Length=0.05359999847412109 bus1=3110211.1.3 bus2=3110210.1.3 switch=n enabled=y phases=2 Linecode=2P_Code11
New Line.line_75614079_3110211_3110243 Units=km Length=0.033700000762939455 bus1=3110243.1.3 bus2=3110211.1.3 switch=n enabled=y phases=2 Linecode=2P_Code11
New Line.line_75614637_3103775_3103277 Units=km Length=0.0510999984741211 bus1=3103277.1.2.3 bus2=3103775.1.2.3 switch=n enabled=y phases=3 Linecode=3P_OH_Code1
New Line.line_75614646_3104670_3103286 Units=km Length=0.037900001525878906 bus1=3103286.1.2.3 bus2=3104670.1.2.3 switch=n enabled=y phases=3 Linecode=3P_OH_Code1
New Line.line_75614706_3106001_3103339 Units=km Length=0.04 bus1=3103339.3 bus2=3106001.3 switch=n enabled=y phases=1 Linecode=1P_Code0
New Line.line_75614757_3106938_3103384 Units=km Length=0.04459999847412109 bus1=3103384.1.2.3 bus2=3106938.1.2.3 switch=n enabled=y phases=3 Linecode=3P_Code7
New Line.line_75614792_3105816_3103411 Units=km Length=0.013300000190734863 bus1=3103411.2 bus2=3105816.2 switch=n enabled=y phases=1 Linecode=1P_Code0
New Line.line_75615147_3103384_3103711 Units=km Length=0.054 bus1=3103711.1.2.3 bus2=3103384.1.2.3 switch=n enabled=y phases=3 Linecode=3P_OH_Code1
New Line.line_75615212_3106464_3103774 Units=km Length=0.015 bus1=3103774.1.2.3 bus2=3106464.1.2.3 switch=n enabled=y phases=3 Linecode=3P_OH_Code1
New Line.line_75615213_3103906_3103775 Units=km Length=0.030399999618530273 bus1=3103775.1.2.3 bus2=3103906.1.2.3 switch=n enabled=y phases=3 Linecode=3P_OH_Code4
New Line.line_75615214_3103908_3103384 Units=km Length=0.05829999923706055 bus1=3103384.1.2.3 bus2=3103908.1.2.3 switch=n enabled=y phases=3 Linecode=3P_OH_Code1
New Line.line_75615238_3103286_3103795 Units=km Length=0.0315 bus1=3103795.1.2.3 bus2=3103286.1.2.3 switch=n enabled=y phases=3 Linecode=3P_OH_Code1
New Line.line_75615374_3103277_3103774 Units=km Length=0.04779999923706055 bus1=3103774.1.2.3 bus2=3103277.1.2.3 switch=n enabled=y phases=3 Linecode=3P_OH_Code1
New Line.line_75615375_3107042_3103906 Units=km Length=0.019399999618530273 bus1=3103906.1.2.3 bus2=3107042.1.2.3 switch=n enabled=y phases=3 Linecode=3P_OH_Code4
New Line.line_75615376_3104800_3103907 Units=km Length=0.012899999618530274 bus1=3103907.1.3 bus2=3104800.1.3 switch=n enabled=y phases=2 Linecode=2P_Code2
New Line.line_75615377_3103907_3103411 Units=km Length=0.04729999923706055 bus1=3103411.1.2.3 bus2=3103907.1.2.3 switch=n enabled=y phases=3 Linecode=3P_OH_Code1
New Line.line_75615378_3103411_3103908 Units=km Length=0.04290000152587891 bus1=3103908.1.2.3 bus2=3103411.1.2.3 switch=n enabled=y phases=3 Linecode=3P_OH_Code1
New Line.line_75616045_3107648_3103775 Units=km Length=0.010800000190734864 bus1=3103775.1 bus2=3107648.1 switch=n enabled=y phases=1 Linecode=1P_Code0
New Line.line_75616225_3107827_3103411 Units=km Length=0.030100000381469726 bus1=3103411.1 bus2=3107827.1 switch=n enabled=y phases=1 Linecode=1P_Code0
New Line.line_75616334_3107932_3103774 Units=km Length=0.01779999923706055 bus1=3103774.1.2.3 bus2=3107932.1.2.3 switch=n enabled=y phases=3 Linecode=3P_Code5
New Line.line_75616336_3107934_3104611 Units=km Length=0.017 bus1=3104611.3 bus2=3107934.3 switch=n enabled=y phases=1 Linecode=1P_Code0
New Line.line_75616397_3107994_3104662 Units=km Length=0.024899999618530275 bus1=3104662.1 bus2=3107994.1 switch=n enabled=y phases=1 Linecode=1P_Code0
New Line.line_75616398_3107995_3103711 Units=km Length=0.021500000000000002 bus1=3103711.1.2.3 bus2=3107995.1.2.3 switch=n enabled=y phases=3 Linecode=3P_OH_Code1
New Line.line_75616400_3107997_3104663 Units=km Length=0.027299999237060547 bus1=3104663.2 bus2=3107997.2 switch=n enabled=y phases=1 Linecode=1P_Code0
New Line.line_75616401_3107997_3104663 Units=km Length=0.027299999237060547 bus1=3104663.2 bus2=3107997.2 switch=n enabled=y phases=1 Linecode=1P_Code0
New Line.line_75616402_3107998_3104664 Units=km Length=0.016600000381469728 bus1=3104664.3 bus2=3107998.3 switch=n enabled=y phases=1 Linecode=1P_Code0
New Line.line_75616420_3108016_3103795 Units=km Length=0.0155 bus1=3103795.1 bus2=3108016.1 switch=n enabled=y phases=1 Linecode=1P_Code0
New Line.line_75616421_3108017_3104670 Units=km Length=0.017399999618530275 bus1=3104670.3 bus2=3108017.3 switch=n enabled=y phases=1 Linecode=1P_Code0
New Line.line_75616565_3108133_3104765 Units=km Length=0.012800000190734864 bus1=3104765.1.2.3 bus2=3108133.1.2.3 switch=n enabled=y phases=3 Linecode=3P_Code3
New Line.line_75616582_3108139_3104779 Units=km Length=0.014100000381469727 bus1=3104779.2 bus2=3108139.2 switch=n enabled=y phases=1 Linecode=1P_Code0
New Line.line_75616595_3103795_3103908 Units=km Length=0.030700000762939453 bus1=3103908.1.2.3 bus2=3103795.1.2.3 switch=n enabled=y phases=3 Linecode=3P_OH_Code1
New Line.line_75616607_3108152_3104800 Units=km Length=0.0175 bus1=3104800.3 bus2=3108152.3 switch=n enabled=y phases=1 Linecode=1P_Code0
New Line.line_75616779_3104664_3104670 Units=km Length=0.03759999847412109 bus1=3104670.1.2.3 bus2=3104664.1.2.3 switch=n enabled=y phases=3 Linecode=3P_OH_Code1
New Line.line_75616809_3104765_3104927 Units=km Length=0.016799999237060548 bus1=3104927.1.2.3 bus2=3104765.1.2.3 switch=n enabled=y phases=3 Linecode=3P_Code3
New Line.line_75616993_3108352_3104779 Units=km Length=0.016899999618530274 bus1=3104779.1 bus2=3108352.1 switch=n enabled=y phases=1 Linecode=1P_Code0
New Line.line_75617102_3103711_3104662 Units=km Length=0.04790000152587891 bus1=3104662.1.2.3 bus2=3103711.1.2.3 switch=n enabled=y phases=3 Linecode=3P_OH_Code1
New Line.line_75617177_3108389_3103906 Units=km Length=0.035900001525878904 bus1=3103906.1 bus2=3108389.1 switch=n enabled=y phases=1 Linecode=1P_Code0
New Line.line_75617336_3108455_3103286 Units=km Length=0.01760000038146973 bus1=3103286.3 bus2=3108455.3 switch=n enabled=y phases=1 Linecode=1P_Code0
New Line.line_75617357_3108475_3104927 Units=km Length=0.013199999809265136 bus1=3104927.3 bus2=3108475.3 switch=n enabled=y phases=1 Linecode=1P_Code0
New Line.line_75617439_3108557_3103411 Units=km Length=0.022399999618530272 bus1=3103411.1 bus2=3108557.1 switch=n enabled=y phases=1 Linecode=1P_Code0
New Line.line_75617465_3108573_3103339 Units=km Length=0.009800000190734863 bus1=3103339.3 bus2=3108573.3 switch=n enabled=y phases=1 Linecode=1P_Code0
New Line.line_75617556_3108639_3105369 Units=km Length=0.031100000381469727 bus1=3105369.1 bus2=3108639.1 switch=n enabled=y phases=1 Linecode=1P_Code0
New Line.line_75617558_3104611_3103907 Units=km Length=0.022299999237060546 bus1=3103907.3 bus2=3104611.3 switch=n enabled=y phases=1 Linecode=1P_Code0
New Line.line_75617578_3108652_3105381 Units=km Length=0.0265 bus1=3105381.3 bus2=3108652.3 switch=n enabled=y phases=1 Linecode=1P_Code0
New Line.line_75617647_3108688_3104800 Units=km Length=0.017700000762939455 bus1=3104800.1 bus2=3108688.1 switch=n enabled=y phases=1 Linecode=1P_Code0
New Line.line_75617819_3105381_3104664 Units=km Length=0.0355999984741211 bus1=3104664.1.2.3 bus2=3105381.1.2.3 switch=n enabled=y phases=3 Linecode=3P_OH_Code1
New Line.line_75617938_3108861_3105381 Units=km Length=0.0155 bus1=3105381.1 bus2=3108861.1 switch=n enabled=y phases=1 Linecode=1P_Code0
New Line.line_75618171_3108984_3104664 Units=km Length=0.015199999809265136 bus1=3104664.2 bus2=3108984.2 switch=n enabled=y phases=1 Linecode=1P_Code0
New Line.line_75618264_3109027_3105735 Units=km Length=0.016299999237060547 bus1=3105735.1 bus2=3109027.1 switch=n enabled=y phases=1 Linecode=1P_Code0
New Line.line_75618382_3106001_3103277 Units=km Length=0.028100000381469727 bus1=3103277.1.2.3 bus2=3106001.1.2.3 switch=n enabled=y phases=3 Linecode=3P_Code5
New Line.line_75618442_3109132_3105816 Units=km Length=0.015199999809265136 bus1=3105816.2 bus2=3109132.2 switch=n enabled=y phases=1 Linecode=1P_Code0
New Line.line_75618812_3105735_3106001 Units=km Length=0.03570000076293946 bus1=3106001.1 bus2=3105735.1 switch=n enabled=y phases=1 Linecode=1P_Code0
New Line.line_75618887_3104663_3104664 Units=km Length=0.027100000381469726 bus1=3104664.2 bus2=3104663.2 switch=n enabled=y phases=1 Linecode=1P_Code0
New Line.line_75619143_3109490_3106132 Units=km Length=0.021100000381469728 bus1=3106132.3 bus2=3109490.3 switch=n enabled=y phases=1 Linecode=1P_Code10
New Line.line_75619270_3104927_3105369 Units=km Length=0.017399999618530275 bus1=3105369.1.2.3 bus2=3104927.1.2.3 switch=n enabled=y phases=3 Linecode=3P_Code3
New Line.line_75619390_3105369_3103907 Units=km Length=0.04290000152587891 bus1=3103907.1.2.3 bus2=3105369.1.2.3 switch=n enabled=y phases=3 Linecode=3P_OH_Code1
New Line.line_75619496_3105369_3103775 Units=km Length=0.07040000152587891 bus1=3103775.1.2.3 bus2=3105369.1.2.3 switch=n enabled=y phases=3 Linecode=3P_OH_Code1
New Line.line_75619797_3109811_3103384 Units=km Length=0.018200000762939452 bus1=3103384.2 bus2=3109811.2 switch=n enabled=y phases=1 Linecode=1P_Code8
New Line.line_75619841_3109841_3103775 Units=km Length=0.021899999618530275 bus1=3103775.3 bus2=3109841.3 switch=n enabled=y phases=1 Linecode=1P_Code0
New Line.line_75619896_3104779_3106464 Units=km Length=0.03570000076293946 bus1=3106464.1.2.3 bus2=3104779.1.2.3 switch=n enabled=y phases=3 Linecode=3P_OH_Code1
New Line.line_75619941_3109897_3104663 Units=km Length=0.018799999237060546 bus1=3104663.2 bus2=3109897.2 switch=n enabled=y phases=1 Linecode=1P_Code0
New Line.line_75619981_3106132_3106499 Units=km Length=0.017299999237060548 bus1=3106499.3 bus2=3106132.3 switch=n enabled=y phases=1 Linecode=1P_Code0
New Line.line_75619999_3106499_3104662 Units=km Length=0.03540000152587891 bus1=3104662.1.2.3 bus2=3106499.1.2.3 switch=n enabled=y phases=3 Linecode=3P_Code9
New Line.line_75620031_3109941_3104662 Units=km Length=0.042700000762939457 bus1=3104662.1 bus2=3109941.1 switch=n enabled=y phases=1 Linecode=1P_Code0
New Line.line_75629697_3110654_3107932 Units=km Length=0.004716441587484396 bus1=3107932.1 bus2=3110654.1 switch=n enabled=y phases=1 Linecode=1P_Code6
New Line.line_75629749_3110706_3107997 Units=km Length=0.010144010362823867 bus1=3107997.2 bus2=3110706.2 switch=n enabled=y phases=1 Linecode=1P_Code6
New Line.line_75629750_3110707_3107997 Units=km Length=0.018682492720799908 bus1=3107997.2 bus2=3110707.2 switch=n enabled=y phases=1 Linecode=1P_Code6
New Line.line_75629759_3110716_3110211 Units=km Length=0.029582245879532537 bus1=3110211.1 bus2=3110716.1 switch=n enabled=y phases=1 Linecode=1P_Code6
New Line.line_75629760_3110717_3110211 Units=km Length=0.03167386740311117 bus1=3110211.3 bus2=3110717.3 switch=n enabled=y phases=1 Linecode=1P_Code6
New Line.line_75629761_3110718_3110210 Units=km Length=0.013885812996085154 bus1=3110210.1 bus2=3110718.1 switch=n enabled=y phases=1 Linecode=1P_Code6
New Line.line_75629762_3110719_3110210 Units=km Length=0.006835717047828812 bus1=3110210.3 bus2=3110719.3 switch=n enabled=y phases=1 Linecode=1P_Code6
New Line.line_75629763_3110720_3110210 Units=km Length=0.011802023769740247 bus1=3110210.3 bus2=3110720.3 switch=n enabled=y phases=1 Linecode=1P_Code6
New Line.line_75629764_3110721_3110265 Units=km Length=0.011272077193233388 bus1=3110265.3 bus2=3110721.3 switch=n enabled=y phases=1 Linecode=1P_Code6
New Line.line_75629765_3110722_3110265 Units=km Length=0.014284116222282178 bus1=3110265.3 bus2=3110722.3 switch=n enabled=y phases=1 Linecode=1P_Code6
New Line.line_75629766_3110723_3110210 Units=km Length=0.012572758927740893 bus1=3110210.3 bus2=3110723.3 switch=n enabled=y phases=1 Linecode=1P_Code6
New Line.line_75629767_3110724_3110211 Units=km Length=0.02046852980153581 bus1=3110211.3 bus2=3110724.3 switch=n enabled=y phases=1 Linecode=1P_Code6
New Line.line_75629768_3110725_3110211 Units=km Length=0.013717172275608707 bus1=3110211.3 bus2=3110725.3 switch=n enabled=y phases=1 Linecode=1P_Code6
New Line.line_75629769_3110726_3110265 Units=km Length=0.013365290615748928 bus1=3110265.1 bus2=3110726.1 switch=n enabled=y phases=1 Linecode=1P_Code6
New Line.line_75629770_3110727_3110265 Units=km Length=0.008073999024730757 bus1=3110265.1 bus2=3110727.1 switch=n enabled=y phases=1 Linecode=1P_Code6
New Line.line_75629771_3110728_3110243 Units=km Length=0.04426343580312392 bus1=3110243.1 bus2=3110728.1 switch=n enabled=y phases=1 Linecode=1P_Code6
New Line.line_75629772_3110729_3110243 Units=km Length=0.01953761322551126 bus1=3110243.3 bus2=3110729.3 switch=n enabled=y phases=1 Linecode=1P_Code6
New Line.line_75629793_3110750_3103339 Units=km Length=0.01599805538966275 bus1=3103339.3 bus2=3110750.3 switch=n enabled=y phases=1 Linecode=1P_Code6
New Line.line_75629794_3110751_3107995 Units=km Length=0.019514092427113442 bus1=3107995.2 bus2=3110751.2 switch=n enabled=y phases=1 Linecode=1P_Code6
New Line.line_75629795_3110752_3107995 Units=km Length=0.019514092427113442 bus1=3107995.3 bus2=3110752.3 switch=n enabled=y phases=1 Linecode=1P_Code6
New Line.line_75629796_3110753_3107042 Units=km Length=0.016284394556530562 bus1=3107042.3 bus2=3110753.3 switch=n enabled=y phases=1 Linecode=1P_Code6
New Line.line_75629797_3110754_3108352 Units=km Length=0.00678367470915809 bus1=3108352.1 bus2=3110754.1 switch=n enabled=y phases=1 Linecode=1P_Code6
New Line.line_75629798_3110755_3108139 Units=km Length=0.025430221808709387 bus1=3108139.2 bus2=3110755.2 switch=n enabled=y phases=1 Linecode=1P_Code6
New Line.line_75630309_3111266_3107042 Units=km Length=0.012710341658394589 bus1=3107042.3 bus2=3111266.3 switch=n enabled=y phases=1 Linecode=1P_Code6
New Line.line_75630321_3111278_3109027 Units=km Length=0.019951735895669856 bus1=3109027.1 bus2=3111278.1 switch=n enabled=y phases=1 Linecode=1P_Code6
New Line.line_75630322_3111279_3109027 Units=km Length=0.01685073174234217 bus1=3109027.1 bus2=3111279.1 switch=n enabled=y phases=1 Linecode=1P_Code6
New Line.line_75630341_3111298_3107042 Units=km Length=0.010488177776227292 bus1=3107042.3 bus2=3111298.3 switch=n enabled=y phases=1 Linecode=1P_Code6
New Line.line_75630342_3111299_3106001 Units=km Length=0.01772748964158947 bus1=3106001.1 bus2=3111299.1 switch=n enabled=y phases=1 Linecode=1P_Code6
New Line.line_75630361_3111318_3108389 Units=km Length=0.021609316399625867 bus1=3108389.1 bus2=3111318.1 switch=n enabled=y phases=1 Linecode=1P_Code6
New Line.line_75630454_3111411_3106938 Units=km Length=0.02830631339557227 bus1=3106938.3 bus2=3111411.3 switch=n enabled=y phases=1 Linecode=1P_Code6
New Line.line_75630505_3111462_3109027 Units=km Length=0.048183131708178464 bus1=3109027.1 bus2=3111462.1 switch=n enabled=y phases=1 Linecode=1P_Code6
New Line.line_75630546_3111503_3106499 Units=km Length=0.022165914059013227 bus1=3106499.3 bus2=3111503.3 switch=n enabled=y phases=1 Linecode=1P_Code6
New Line.line_75630548_3111505_3107932 Units=km Length=0.004716441587484396 bus1=3107932.1 bus2=3111505.1 switch=n enabled=y phases=1 Linecode=1P_Code6
New Line.line_75630627_3111584_3106938 Units=km Length=0.02297861182844821 bus1=3106938.2 bus2=3111584.2 switch=n enabled=y phases=1 Linecode=1P_Code6
New Line.line_75630633_3111590_3106499 Units=km Length=0.02358495283014151 bus1=3106499.1 bus2=3111590.1 switch=n enabled=y phases=1 Linecode=1P_Code6
New Line.line_75630707_3111664_3110243 Units=km Length=0.02422295212348709 bus1=3110243.1 bus2=3111664.1 switch=n enabled=y phases=1 Linecode=1P_Code6
New Line.line_75630712_3111669_3110211 Units=km Length=0.025029074218976956 bus1=3110211.3 bus2=3111669.3 switch=n enabled=y phases=1 Linecode=1P_Code6
New Line.line_75630713_3111670_3110211 Units=km Length=0.03460081315917347 bus1=3110211.3 bus2=3111670.3 switch=n enabled=y phases=1 Linecode=1P_Code6
New Line.line_75630730_3111687_3110265 Units=km Length=0.012714286698474523 bus1=3110265.1 bus2=3111687.1 switch=n enabled=y phases=1 Linecode=1P_Code6
